test/TEST190523/v_h28.csv
Bus, BasekV, Node1, Magnitude1, Angle1, pu1, Node2, Magnitude2, Angle2, pu2, Node3, Magnitude3, Angle3, pu3
"SOURCEBUS", 69, 1,    41835.4,   -0.1,    1.0502, 2,    41827.3, -120.2,      1.05, 3,    41811.8,  119.9,    1.0496
"BUSMVMAI1", 12.8, 1,    7764.09,  -30.4,    1.0506, 2,    7766.26, -150.5,    1.0509, 3,    7753.89,   89.4,    1.0492
"BUSMVMAI136", 12.505, 1,    7764.09,  -30.4,    1.0754, 2,    7766.23, -150.5,    1.0757, 3,    7753.85,   89.4,    1.0739
"BUSMVMAI3", 12.505, 1,    7763.42,  -30.8,    1.0753, 2,    7744.36, -150.7,    1.0726, 3,    7723.64,   88.9,    1.0698
"BUSMVMAI2", 12.505, 1,    7763.41,  -30.8,    1.0753, 2,     7744.3, -150.7,    1.0726, 3,    7723.55,   88.9,    1.0697
"BUSMVMAI4", 12.505, 1,     7763.4,  -30.8,    1.0753, 2,    7743.68, -150.7,    1.0725, 3,    7722.71,   88.8,    1.0696
"BUSMVMAI46", 12.505, 1,    7763.42,  -30.8,    1.0753, 2,    7744.38, -150.7,    1.0726, 3,    7723.67,   88.9,    1.0698
"BUSMVMAI5", 12.505, 1,    7763.13,  -30.8,    1.0752, 2,    7742.87, -150.7,    1.0724, 3,    7721.67,   88.8,    1.0695
"BUSMVMAI862", 12.505, 1,    7763.39,  -30.8,    1.0753, 0, 0, 0, 0, 0, 0, 0, 0
"BUSMVMAI6", 12.505, 1,    7763.08,  -30.8,    1.0752, 2,    7742.71, -150.7,    1.0724, 3,    7721.48,   88.8,    1.0695
"BUSMVMAI859", 12.505, 3,    7721.65,   88.8,    1.0695, 0, 0, 0, 0, 0, 0, 0, 0
"BUSMVMAI860", 12.505, 3,    7721.67,   88.8,    1.0695, 0, 0, 0, 0, 0, 0, 0, 0
"BUSMVMAI7", 12.505, 1,    7762.67,  -30.8,    1.0752, 2,    7742.02, -150.8,    1.0723, 3,    7720.62,   88.8,    1.0693
"BUSMVMAI8", 12.505, 1,    7762.93,  -30.8,    1.0752, 2,    7740.93, -150.8,    1.0722, 3,    7720.02,   88.8,    1.0693
"BUSMVMAI9", 12.505, 1,    7762.67,  -30.8,    1.0752, 2,    7742.02, -150.8,    1.0723, 3,    7720.62,   88.8,    1.0693
"BUSMVMAI10", 12.505, 1,    7762.34,  -30.8,    1.0751, 2,    7742.04, -150.8,    1.0723, 3,    7720.37,   88.8,    1.0693
"BUSMVMAI56", 12.505, 1,     7762.5,  -30.8,    1.0751, 2,    7742.03, -150.8,    1.0723, 3,    7720.49,   88.8,    1.0693
"BUSMVMAI861", 12.505, 3,     7721.6,   88.8,    1.0695, 0, 0, 0, 0, 0, 0, 0, 0
"BUSMVMAI12", 12.505, 1,    7763.14,  -30.8,    1.0752, 2,    7740.03, -150.8,     1.072, 3,    7719.53,   88.8,    1.0692
"BUSMVMAI51", 12.505, 1,    7762.93,  -30.8,    1.0752, 2,    7740.93, -150.8,    1.0722, 3,    7720.02,   88.8,    1.0693
"BUSMVMAI2171", 12.505, 1,    7762.93,  -30.8,    1.0752, 0, 0, 0, 0, 0, 0, 0, 0
"BUSMVMAI863", 12.505, 3,    7721.56,   88.8,    1.0695, 0, 0, 0, 0, 0, 0, 0, 0
"BUSMVMAI2165", 12.505, 3,    7720.62,   88.8,    1.0693, 0, 0, 0, 0, 0, 0, 0, 0
"BUSMVMAI694", 12.505, 1,    7762.67,  -30.8,    1.0752, 2,    7742.02, -150.8,    1.0723, 3,    7720.62,   88.8,    1.0693
"BUSMVMAI122", 12.505, 1,    7762.32,  -30.8,    1.0751, 2,    7742.04, -150.8,    1.0723, 3,    7720.35,   88.8,    1.0693
"BUSMVMAI11", 12.505, 1,    7763.14,  -30.8,    1.0752, 2,    7740.03, -150.8,     1.072, 3,    7719.53,   88.8,    1.0692
"BUSMVMAI13", 12.505, 1,    7763.14,  -30.8,    1.0752, 2,    7740.01, -150.8,     1.072, 3,    7719.53,   88.8,    1.0692
"BUSMVMAI18", 12.505, 1,    7763.22,  -30.8,    1.0752, 2,     7739.7, -150.8,     1.072, 3,    7719.34,   88.8,    1.0692
"BUSMVMAI14", 12.505, 1,    7763.14,  -30.8,    1.0752, 2,    7739.98, -150.8,     1.072, 3,    7719.54,   88.8,    1.0692
"BUSMVMAI15", 12.505, 1,    7763.14,  -30.8,    1.0752, 2,    7739.96, -150.8,     1.072, 3,    7719.54,   88.8,    1.0692
"BUSMVMAI16", 12.505, 1,    7763.14,  -30.8,    1.0752, 2,    7739.95, -150.8,     1.072, 3,    7719.54,   88.8,    1.0692
"BUSMVMAI2166", 12.505, 2,    7739.95, -150.8,     1.072, 0, 0, 0, 0, 0, 0, 0, 0
"BUSMVMAI2172", 12.505, 1,    7763.39,  -30.8,    1.0753, 0, 0, 0, 0, 0, 0, 0, 0
"BUSMVMAI864", 12.505, 3,    7721.54,   88.8,    1.0695, 0, 0, 0, 0, 0, 0, 0, 0
"BUSMVMAI865", 12.505, 3,    7721.49,   88.8,    1.0695, 0, 0, 0, 0, 0, 0, 0, 0
"BUSMVMAI17", 12.505, 1,    7763.14,  -30.8,    1.0752, 2,    7739.95, -150.8,     1.072, 3,    7719.54,   88.8,    1.0692
"BUSMVMAI695", 12.505, 1,    7763.14,  -30.8,    1.0752, 2,    7739.96, -150.8,     1.072, 3,    7719.54,   88.8,    1.0692
"BUSMVMAI866", 12.505, 3,    7721.49,   88.8,    1.0695, 0, 0, 0, 0, 0, 0, 0, 0
"BUSMVMAI2176", 12.505, 3,    7721.49,   88.8,    1.0695, 0, 0, 0, 0, 0, 0, 0, 0
"BUSMVMAI2177", 12.505, 3,    7721.49,   88.8,    1.0695, 0, 0, 0, 0, 0, 0, 0, 0
"BUSMVMAI2178", 12.505, 3,    7721.46,   88.8,    1.0695, 0, 0, 0, 0, 0, 0, 0, 0
"BUSMVMAI19", 12.505, 1,    7763.38,  -30.8,    1.0753, 2,    7739.11, -150.8,    1.0719, 3,    7719.01,   88.8,    1.0691
"BUSMVMAI20", 12.505, 1,     7763.6,  -30.8,    1.0753, 2,    7738.28, -150.8,    1.0718, 3,    7718.53,   88.8,     1.069
"BUSMVMAI53", 12.505, 1,    7763.38,  -30.8,    1.0753, 2,    7739.11, -150.8,    1.0719, 3,    7719.01,   88.8,    1.0691
"BUSMVMAI21", 12.505, 1,    7763.83,  -30.8,    1.0753, 2,     7737.4, -150.8,    1.0717, 3,    7718.04,   88.8,     1.069
"BUSMVMAI22", 12.505, 1,    7764.09,  -30.8,    1.0754, 2,    7736.36, -150.8,    1.0715, 3,    7717.47,   88.7,    1.0689
"BUSMVMAI23", 12.505, 1,    7763.83,  -30.8,    1.0753, 2,     7737.4, -150.8,    1.0717, 3,    7718.04,   88.8,     1.069
"BUSMVMAI25", 12.505, 1,    7764.37,  -30.8,    1.0754, 2,     7735.3, -150.8,    1.0714, 3,     7716.9,   88.7,    1.0688
"BUSMVMAI52", 12.505, 1,    7764.09,  -30.8,    1.0754, 2,    7736.36, -150.8,    1.0715, 3,    7717.47,   88.7,    1.0689
"BUSMVMAI54", 12.505, 1,    7764.09,  -30.8,    1.0754, 2,    7736.36, -150.8,    1.0715, 3,    7717.47,   88.7,    1.0689
"BUSMVMAI55", 12.505, 1,    7764.09,  -30.8,    1.0754, 2,    7736.36, -150.8,    1.0715, 3,    7717.47,   88.7,    1.0689
"BUSMVMAI696", 12.505, 1,    7763.83,  -30.8,    1.0753, 2,     7737.4, -150.8,    1.0717, 3,    7718.03,   88.8,     1.069
"BUSMVMAI24", 12.505, 1,    7764.39,  -30.8,    1.0754, 2,     7735.2, -150.8,    1.0714, 3,    7716.84,   88.7,    1.0688
"BUSMVMAI26", 12.505, 1,    7764.66,  -30.8,    1.0754, 2,    7734.13, -150.8,    1.0712, 3,    7716.27,   88.7,    1.0687
"BUSMVMAI49", 12.505, 1,    7764.37,  -30.8,    1.0754, 2,     7735.3, -150.8,    1.0714, 3,     7716.9,   88.7,    1.0688
"BUSMVMAI50", 12.505, 1,    7764.37,  -30.8,    1.0754, 2,     7735.3, -150.8,    1.0714, 3,    7716.89,   88.7,    1.0688
"BUSMVMAI27", 12.505, 1,    7764.66,  -30.8,    1.0754, 2,    7734.14, -150.8,    1.0712, 3,    7716.26,   88.7,    1.0687
"BUSMVMAI28", 12.505, 1,    7764.88,  -30.8,    1.0755, 2,    7733.32, -150.8,    1.0711, 3,    7715.84,   88.7,    1.0687
"BUSMVMAI29", 12.505, 1,    7764.65,  -30.8,    1.0754, 2,    7734.14, -150.8,    1.0712, 3,    7716.26,   88.7,    1.0687
"BUSMVMAI31", 12.505, 1,    7765.12,  -30.8,    1.0755, 2,    7732.37, -150.8,     1.071, 3,    7715.34,   88.7,    1.0686
"BUSMVMAI30", 12.505, 1,    7764.64,  -30.8,    1.0754, 2,    7734.15, -150.8,    1.0712, 3,    7716.25,   88.7,    1.0687
"BUSMVMAI34", 12.505, 1,    7764.63,  -30.8,    1.0754, 2,    7734.16, -150.8,    1.0712, 3,    7716.24,   88.7,    1.0687
"BUSMVMAI867", 12.505, 1,     7765.1,  -30.8,    1.0755, 0, 0, 0, 0, 0, 0, 0, 0
"BUSMVMAI43", 12.505, 1,    7765.13,  -30.8,    1.0755, 2,    7732.35, -150.8,     1.071, 3,    7715.32,   88.7,    1.0686
"BUSMVMAI871", 12.505, 2,    7732.37, -150.8,     1.071, 0, 0, 0, 0, 0, 0, 0, 0
"BUSMVMAI33", 12.505, 1,     7765.2,  -30.8,    1.0755, 2,    7732.07, -150.8,    1.0709, 3,    7715.19,   88.7,    1.0686
"BUSMVMAI32", 12.505, 1,    7765.42,  -30.8,    1.0755, 2,    7731.26, -150.8,    1.0708, 3,    7714.77,   88.7,    1.0685
"BUSMVMAI37", 12.505, 1,    7765.72,  -30.8,    1.0756, 2,    7730.14, -150.8,    1.0707, 3,    7714.21,   88.7,    1.0685
"BUSMVMAI44", 12.505, 1,    7765.13,  -30.8,    1.0755, 2,    7732.32, -150.8,     1.071, 3,    7715.31,   88.7,    1.0686
"BUSMVMAI35", 12.505, 1,    7764.63,  -30.8,    1.0754, 2,    7734.16, -150.8,    1.0712, 3,    7716.23,   88.7,    1.0687
"BUSMVMAI36", 12.505, 1,    7764.63,  -30.8,    1.0754, 2,    7734.16, -150.8,    1.0712, 3,    7716.23,   88.7,    1.0687
"BUSMVMAI869", 12.505, 1,     7765.1,  -30.8,    1.0755, 0, 0, 0, 0, 0, 0, 0, 0
"BUSMVMAI38", 12.505, 1,    7765.96,  -30.8,    1.0756, 2,    7729.25, -150.8,    1.0705, 3,    7713.77,   88.6,    1.0684
"BUSMVMAI2181", 12.505, 1,    7765.71,  -30.8,    1.0756, 0, 0, 0, 0, 0, 0, 0, 0
"BUSMVMAI868", 12.505, 1,    7765.05,  -30.8,    1.0755, 0, 0, 0, 0, 0, 0, 0, 0
"BUSMVMAI870", 12.505, 1,    7765.01,  -30.8,    1.0755, 0, 0, 0, 0, 0, 0, 0, 0
"BUSMVMAI39", 12.505, 1,    7765.97,  -30.8,    1.0756, 2,    7729.25, -150.8,    1.0705, 3,    7713.75,   88.6,    1.0684
"BUSMVMAI40", 12.505, 1,    7766.18,  -30.8,    1.0756, 2,    7728.38, -150.8,    1.0704, 3,    7713.36,   88.6,    1.0683
"BUSMVMAI697", 12.505, 1,    7765.99,  -30.8,    1.0756, 2,    7729.25, -150.8,    1.0705, 3,    7713.68,   88.6,    1.0684
"BUSMVMAI41", 12.505, 1,    7766.43,  -30.8,    1.0757, 2,    7727.38, -150.8,    1.0703, 3,    7712.87,   88.6,    1.0683
"BUSMVMAI42", 12.505, 1,    7766.44,  -30.8,    1.0757, 2,    7727.37, -150.8,    1.0703, 3,    7712.86,   88.6,    1.0683
"BUSMVMAI48", 12.505, 1,    7766.64,  -30.8,    1.0757, 2,    7726.54, -150.8,    1.0702, 3,    7712.48,   88.6,    1.0682
"BUSMVMAI303", 12.505, 1,    7766.53,  -30.8,    1.0757, 2,    7726.96, -150.8,    1.0702, 3,    7712.67,   88.6,    1.0682
"BUSMVMAI45", 12.505, 1,    7766.44,  -30.8,    1.0757, 2,    7727.37, -150.8,    1.0703, 3,    7712.85,   88.6,    1.0683
"BUSMVMAI701", 12.505, 1,    7766.44,  -30.8,    1.0757, 2,    7727.37, -150.8,    1.0703, 3,    7712.84,   88.6,    1.0683
"BUSMVMAI47", 12.505, 1,    7763.42,  -30.8,    1.0753, 2,    7744.66, -150.7,    1.0727, 3,    7724.04,   88.9,    1.0698
"BUSMVMAI179", 12.505, 1,    7763.42,  -30.8,    1.0753, 2,    7744.52, -150.7,    1.0726, 3,    7723.86,   88.9,    1.0698
"BUSMVMAI160", 12.505, 1,    7763.44,  -30.8,    1.0753, 2,    7745.31, -150.7,    1.0728, 3,    7724.94,   88.9,    1.0699
"BUSMVMAI1103", 12.505, 1,     7766.6,  -30.8,    1.0757, 0, 0, 0, 0, 0, 0, 0, 0
"BUSMVMAI259", 12.505, 1,    7766.76,  -30.8,    1.0757, 2,    7726.11, -150.8,    1.0701, 3,     7712.3,   88.6,    1.0682
"BUSMVMAI304", 12.505, 1,    7766.64,  -30.8,    1.0757, 2,    7726.54, -150.8,    1.0702, 3,    7712.48,   88.6,    1.0682
"BUSMVMAI702", 12.505, 1,    7764.37,  -30.8,    1.0754, 2,     7735.3, -150.8,    1.0714, 3,    7716.89,   88.7,    1.0688
"BUSMVMAI58", 12.505, 1,    7762.11,  -30.8,    1.0751, 2,    7742.05, -150.8,    1.0723, 3,    7720.19,   88.8,    1.0693
"BUSMVMAI57", 12.505, 1,    7761.32,  -30.8,     1.075, 2,    7742.09, -150.8,    1.0723, 3,    7719.59,   88.8,    1.0692
"BUSMVMAI60", 12.505, 1,    7760.99,  -30.8,    1.0749, 2,     7742.1, -150.8,    1.0723, 3,    7719.34,   88.8,    1.0692
"BUSMVMAI703", 12.505, 1,    7761.32,  -30.8,     1.075, 2,    7742.09, -150.8,    1.0723, 3,    7719.58,   88.8,    1.0692
"BUSMVMAI123", 12.505, 1,     7762.3,  -30.8,    1.0751, 2,    7742.04, -150.8,    1.0723, 3,    7720.34,   88.8,    1.0693
"BUSMVMAI59", 12.505, 1,    7760.53,  -30.8,    1.0749, 2,    7742.14, -150.8,    1.0723, 3,    7719.07,   88.8,    1.0691
"BUSMVMAI61", 12.505, 1,    7759.76,  -30.8,    1.0748, 2,     7742.2, -150.8,    1.0723, 3,    7718.62,   88.8,    1.0691
"BUSMVMAI63", 12.505, 1,    7761.01,  -30.8,    1.0749, 2,    7742.09, -150.8,    1.0723, 3,    7719.31,   88.8,    1.0692
"BUSMVMAI874", 12.505, 3,    7719.34,   88.8,    1.0692, 0, 0, 0, 0, 0, 0, 0, 0
"BUSMVMAI62", 12.505, 1,    7758.99,  -30.8,    1.0747, 2,    7742.24, -150.8,    1.0723, 3,    7718.16,   88.8,     1.069
"BUSMVMAI64", 12.505, 1,    7758.14,  -30.8,    1.0745, 2,    7742.31, -150.8,    1.0723, 3,    7717.81,   88.8,    1.0689
"BUSMVMAI942", 12.505, 3,    7718.15,   88.8,     1.069, 0, 0, 0, 0, 0, 0, 0, 0
"BUSMVMAI873", 12.505, 3,    7718.15,   88.8,     1.069, 0, 0, 0, 0, 0, 0, 0, 0
"BUSMVMAI872", 12.505, 3,    7717.97,   88.8,     1.069, 0, 0, 0, 0, 0, 0, 0, 0
"BUSMVMAI880", 12.505, 3,    7717.97,   88.8,     1.069, 0, 0, 0, 0, 0, 0, 0, 0
"BUSMVMAI945", 12.505, 3,     7719.3,   88.8,    1.0692, 0, 0, 0, 0, 0, 0, 0, 0
"BUSMVMAI65", 12.505, 1,    7757.26,  -30.8,    1.0744, 2,    7742.35, -150.8,    1.0723, 3,    7717.44,   88.8,    1.0689
"BUSMVMAI66", 12.505, 1,    7756.37,  -30.8,    1.0743, 2,    7742.38, -150.8,    1.0724, 3,    7717.07,   88.8,    1.0688
"BUSMVMAI67", 12.505, 1,    7755.41,  -30.9,    1.0742, 2,    7742.42, -150.8,    1.0724, 3,    7716.66,   88.8,    1.0688
"BUSMVMAI878", 12.505, 1,    7755.36,  -30.9,    1.0742, 0, 0, 0, 0, 0, 0, 0, 0
"BUSMVMAI68", 12.505, 1,    7754.71,  -30.9,    1.0741, 2,    7742.43, -150.8,    1.0724, 3,    7716.36,   88.8,    1.0687
"BUSMVMAI706", 12.505, 1,    7755.41,  -30.9,    1.0742, 2,    7742.42, -150.8,    1.0724, 3,    7716.66,   88.8,    1.0688
"BUSMVMAI876", 12.505, 3,     7719.3,   88.8,    1.0692, 0, 0, 0, 0, 0, 0, 0, 0
"BUSMVMAI875", 12.505, 3,    7719.18,   88.8,    1.0691, 0, 0, 0, 0, 0, 0, 0, 0
"BUSMVMAI877", 12.505, 3,    7719.14,   88.8,    1.0691, 0, 0, 0, 0, 0, 0, 0, 0
"BUSMVMAI883", 12.505, 3,    7719.06,   88.8,    1.0691, 0, 0, 0, 0, 0, 0, 0, 0
"BUSMVMAI884", 12.505, 3,    7719.14,   88.8,    1.0691, 0, 0, 0, 0, 0, 0, 0, 0
"BUSMVMAI886", 12.505, 3,    7719.14,   88.8,    1.0691, 0, 0, 0, 0, 0, 0, 0, 0
"BUSMVMAI885", 12.505, 1,    7755.29,  -30.9,    1.0741, 0, 0, 0, 0, 0, 0, 0, 0
"BUSMVMAI879", 12.505, 3,    7717.72,   88.8,    1.0689, 0, 0, 0, 0, 0, 0, 0, 0
"BUSMVMAI881", 12.505, 3,    7717.69,   88.8,    1.0689, 0, 0, 0, 0, 0, 0, 0, 0
"BUSMVMAI888", 12.505, 3,    7717.68,   88.8,    1.0689, 0, 0, 0, 0, 0, 0, 0, 0
"BUSMVMAI882", 12.505, 3,    7717.66,   88.8,    1.0689, 0, 0, 0, 0, 0, 0, 0, 0
"BUSMVMAI944", 12.505, 3,    7717.66,   88.8,    1.0689, 0, 0, 0, 0, 0, 0, 0, 0
"BUSMVMAI889", 12.505, 3,    7718.98,   88.8,    1.0691, 0, 0, 0, 0, 0, 0, 0, 0
"BUSMVMAI2183", 12.505, 3,    7719.13,   88.8,    1.0691, 0, 0, 0, 0, 0, 0, 0, 0
"BUSMVMAI2184", 12.505, 3,    7719.13,   88.8,    1.0691, 0, 0, 0, 0, 0, 0, 0, 0
"BUSMVMAI71", 12.505, 1,    7754.03,  -30.9,     1.074, 2,    7742.43, -150.8,    1.0724, 3,    7716.07,   88.8,    1.0687
"BUSMVMAI2182", 12.505, 1,    7755.28,  -30.9,    1.0741, 0, 0, 0, 0, 0, 0, 0, 0
"BUSMVMAI2185", 12.505, 1,    7755.28,  -30.9,    1.0741, 0, 0, 0, 0, 0, 0, 0, 0
"BUSMVMAI2186", 12.505, 1,    7755.24,  -30.9,    1.0741, 0, 0, 0, 0, 0, 0, 0, 0
"BUSMVMAI887", 12.505, 3,    7719.13,   88.8,    1.0691, 0, 0, 0, 0, 0, 0, 0, 0
"BUSMVMAI892", 12.505, 3,    7719.12,   88.8,    1.0691, 0, 0, 0, 0, 0, 0, 0, 0
"BUSMVMAI897", 12.505, 3,    7717.63,   88.8,    1.0689, 0, 0, 0, 0, 0, 0, 0, 0
"BUSMVMAI890", 12.505, 3,    7718.92,   88.8,    1.0691, 0, 0, 0, 0, 0, 0, 0, 0
"BUSMVMAI891", 12.505, 3,    7718.87,   88.8,    1.0691, 0, 0, 0, 0, 0, 0, 0, 0
"BUSMVMAI896", 12.505, 3,    7718.86,   88.8,    1.0691, 0, 0, 0, 0, 0, 0, 0, 0
"BUSMVMAI893", 12.505, 3,    7719.11,   88.8,    1.0691, 0, 0, 0, 0, 0, 0, 0, 0
"BUSMVMAI894", 12.505, 3,     7719.1,   88.8,    1.0691, 0, 0, 0, 0, 0, 0, 0, 0
"BUSMVMAI895", 12.505, 3,     7719.1,   88.8,    1.0691, 0, 0, 0, 0, 0, 0, 0, 0
"BUSMVMAI898", 12.505, 3,    7719.09,   88.8,    1.0691, 0, 0, 0, 0, 0, 0, 0, 0
"BUSMVMAI70", 12.505, 1,    7755.42,  -30.9,    1.0742, 2,    7742.43, -150.8,    1.0724, 3,    7716.64,   88.8,    1.0688
"BUSMVMAI69", 12.505, 1,    7755.42,  -30.9,    1.0742, 2,    7742.43, -150.8,    1.0724, 3,    7716.63,   88.8,    1.0688
"BUSMVMAI708", 12.505, 1,    7755.42,  -30.9,    1.0742, 2,    7742.43, -150.8,    1.0724, 3,    7716.64,   88.8,    1.0688
"BUSMVMAI72", 12.505, 1,    7753.13,  -30.9,    1.0738, 2,    7742.42, -150.8,    1.0724, 3,    7715.68,   88.8,    1.0687
"BUSMVMAI73", 12.505, 1,    7752.27,  -30.9,    1.0737, 2,    7742.43, -150.8,    1.0724, 3,    7715.36,   88.8,    1.0686
"BUSMVMAI134", 12.505, 1,    7753.13,  -30.9,    1.0738, 2,    7742.42, -150.8,    1.0724, 3,    7715.68,   88.8,    1.0687
"BUSMVMAI900", 12.505, 3,    7717.58,   88.8,    1.0689, 0, 0, 0, 0, 0, 0, 0, 0
"BUSMVMAI904", 12.505, 3,    7719.09,   88.8,    1.0691, 0, 0, 0, 0, 0, 0, 0, 0
"BUSMVMAI75", 12.505, 1,    7751.85,  -30.9,    1.0737, 2,    7742.46, -150.8,    1.0724, 3,     7715.2,   88.8,    1.0686
"BUSMVMAI718", 12.505, 1,    7752.27,  -30.9,    1.0737, 2,    7742.43, -150.8,    1.0724, 3,    7715.36,   88.8,    1.0686
"BUSMVMAI899", 12.505, 3,    7717.57,   88.8,    1.0689, 0, 0, 0, 0, 0, 0, 0, 0
"BUSMVMAI902", 12.505, 3,    7717.55,   88.8,    1.0689, 0, 0, 0, 0, 0, 0, 0, 0
"BUSMVMAI901", 12.505, 3,    7717.53,   88.8,    1.0689, 0, 0, 0, 0, 0, 0, 0, 0
"BUSMVMAI903", 12.505, 3,     7717.5,   88.8,    1.0689, 0, 0, 0, 0, 0, 0, 0, 0
"BUSMVMAI905", 12.505, 3,    7717.47,   88.8,    1.0689, 0, 0, 0, 0, 0, 0, 0, 0
"BUSMVMAI907", 12.505, 3,     7717.5,   88.8,    1.0689, 0, 0, 0, 0, 0, 0, 0, 0
"BUSMVMAI906", 12.505, 3,    7717.46,   88.8,    1.0689, 0, 0, 0, 0, 0, 0, 0, 0
"BUSMVMAI946", 12.505, 3,    7717.46,   88.8,    1.0689, 0, 0, 0, 0, 0, 0, 0, 0
"BUSMVMAI74", 12.505, 1,    7751.85,  -30.9,    1.0737, 2,    7742.46, -150.8,    1.0724, 3,     7715.2,   88.8,    1.0686
"BUSMVMAI76", 12.505, 1,    7751.79,  -30.9,    1.0737, 2,    7742.51, -150.8,    1.0724, 3,    7715.17,   88.8,    1.0686
"BUSMVMAI77", 12.505, 1,    7751.61,  -30.9,    1.0736, 2,    7742.45, -150.8,    1.0724, 3,     7715.1,   88.8,    1.0686
"BUSMVMAI79", 12.505, 1,    7751.78,  -30.9,    1.0737, 2,    7742.51, -150.8,    1.0724, 3,    7715.16,   88.8,    1.0686
"BUSMVMAI81", 12.505, 1,    7751.59,  -30.9,    1.0736, 2,     7742.4, -150.8,    1.0724, 3,    7715.13,   88.8,    1.0686
"BUSMVMAI91", 12.505, 1,    7750.98,  -30.9,    1.0735, 2,    7742.49, -150.8,    1.0724, 3,    7714.84,   88.8,    1.0685
"BUSMVMAI78", 12.505, 1,    7751.66,  -30.9,    1.0736, 2,     7742.6, -150.8,    1.0724, 3,    7715.11,   88.8,    1.0686
"BUSMVMAI80", 12.505, 1,    7751.54,  -30.9,    1.0736, 2,    7742.68, -150.8,    1.0724, 3,    7715.05,   88.8,    1.0686
"BUSMVMAI908", 12.505, 1,    7751.48,  -30.9,    1.0736, 0, 0, 0, 0, 0, 0, 0, 0
"BUSMVMAI89", 12.505, 1,     7751.5,  -30.9,    1.0736, 2,    7742.71, -150.8,    1.0724, 3,    7715.02,   88.8,    1.0686
"BUSMVMAI949", 12.505, 3,     7717.5,   88.8,    1.0689, 0, 0, 0, 0, 0, 0, 0, 0
"BUSMVMAI82", 12.505, 1,    7751.58,  -30.9,    1.0736, 2,    7742.35, -150.8,    1.0723, 3,    7715.15,   88.8,    1.0686
"BUSMVMAI83", 12.505, 1,    7751.58,  -30.9,    1.0736, 2,    7742.35, -150.8,    1.0723, 3,    7715.14,   88.8,    1.0686
"BUSMVMAI86", 12.505, 1,    7751.58,  -30.9,    1.0736, 2,    7742.34, -150.8,    1.0723, 3,    7715.14,   88.8,    1.0686
"BUSMVMAI85", 12.505, 1,    7752.26,  -30.9,    1.0737, 2,    7742.37, -150.8,    1.0724, 3,    7715.34,   88.8,    1.0686
"BUSMVMAI84", 12.505, 1,    7752.22,  -30.9,    1.0737, 2,    7742.31, -150.8,    1.0723, 3,    7715.34,   88.8,    1.0686
"BUSMVMAI93", 12.505, 1,     7752.2,  -30.9,    1.0737, 2,    7742.28, -150.8,    1.0723, 3,    7715.34,   88.8,    1.0686
"BUSMVMAI2198", 12.505, 2,    7742.31, -150.8,    1.0723, 0, 0, 0, 0, 0, 0, 0, 0
"BUSMVMAI709", 12.505, 1,    7752.27,  -30.9,    1.0737, 2,    7742.42, -150.8,    1.0724, 3,    7715.36,   88.8,    1.0686
"BUSMVMAI88", 12.505, 1,    7751.58,  -30.9,    1.0736, 2,    7742.33, -150.8,    1.0723, 3,    7715.13,   88.8,    1.0686
"BUSMVMAI87", 12.505, 1,    7751.58,  -30.9,    1.0736, 2,    7742.32, -150.8,    1.0723, 3,    7715.13,   88.8,    1.0686
"BUSMVMAI99", 12.505, 1,    7751.58,  -30.9,    1.0736, 2,    7742.31, -150.8,    1.0723, 3,    7715.13,   88.8,    1.0686
"BUSMVMAI722", 12.505, 1,    7751.58,  -30.9,    1.0736, 2,    7742.32, -150.8,    1.0723, 3,    7715.12,   88.8,    1.0686
"BUSMVMAI909", 12.505, 1,    7751.41,  -30.9,    1.0736, 0, 0, 0, 0, 0, 0, 0, 0
"BUSMVMAI90", 12.505, 1,    7751.48,  -30.9,    1.0736, 2,    7742.73, -150.8,    1.0724, 3,    7714.99,   88.8,    1.0686
"BUSMVMAI102", 12.505, 1,    7751.45,  -30.9,    1.0736, 2,    7742.76, -150.8,    1.0724, 3,    7714.95,   88.8,    1.0686
"BUSMVMAI92", 12.505, 1,    7750.43,  -30.9,    1.0735, 2,    7742.51, -150.8,    1.0724, 3,    7714.61,   88.8,    1.0685
"BUSMVMAI132", 12.505, 1,    7750.98,  -30.9,    1.0735, 2,    7742.49, -150.8,    1.0724, 3,    7714.84,   88.8,    1.0685
"BUSMVMAI98", 12.505, 1,    7750.44,  -30.9,    1.0735, 2,    7742.51, -150.8,    1.0724, 3,     7714.6,   88.8,    1.0685
"BUSMVMAI100", 12.505, 1,    7749.74,  -30.9,    1.0734, 2,    7742.58, -150.8,    1.0724, 3,    7714.31,   88.8,    1.0685
"BUSMVMAI723", 12.505, 1,    7750.43,  -30.9,    1.0735, 2,    7742.51, -150.8,    1.0724, 3,    7714.61,   88.8,    1.0685
"BUSMVMAI96", 12.505, 1,    7752.18,  -30.9,    1.0737, 2,    7742.25, -150.8,    1.0723, 3,    7715.34,   88.8,    1.0686
"BUSMVMAI916", 12.505, 1,     7752.2,  -30.9,    1.0737, 0, 0, 0, 0, 0, 0, 0, 0
"BUSMVMAI95", 12.505, 1,    7750.43,  -30.9,    1.0735, 2,    7742.48, -150.8,    1.0724, 3,    7714.61,   88.8,    1.0685
"BUSMVMAI94", 12.505, 1,    7750.42,  -30.9,    1.0735, 2,    7742.45, -150.8,    1.0724, 3,    7714.61,   88.8,    1.0685
"BUSMVMAI112", 12.505, 1,    7750.42,  -30.9,    1.0735, 2,    7742.45, -150.8,    1.0724, 3,     7714.6,   88.8,    1.0685
"BUSMVMAI126", 12.505, 1,    7750.43,  -30.9,    1.0735, 2,    7742.48, -150.8,    1.0724, 3,    7714.61,   88.8,    1.0685
"BUSMVMAI97", 12.505, 1,    7752.16,  -30.9,    1.0737, 2,     7742.2, -150.8,    1.0723, 3,    7715.34,   88.8,    1.0686
"BUSMVMAI711", 12.505, 1,    7752.18,  -30.9,    1.0737, 2,    7742.25, -150.8,    1.0723, 3,    7715.33,   88.8,    1.0686
"BUSMVMAI915", 12.505, 1,    7752.16,  -30.9,    1.0737, 0, 0, 0, 0, 0, 0, 0, 0
...
"BUSLVMAI1", 0.20785, 1,    128.296,   88.8,    1.0691, 2,    128.312,  -91.2,    1.0693, 0, 0, 0, 0
"BUSLVMAI2", 0.20785, 1,    128.189,   88.7,    1.0682, 2,    128.202,  -91.3,    1.0683, 0, 0, 0, 0
"BUSLVMAI3", 0.20785, 1,    128.279,   88.8,     1.069, 2,    128.295,  -91.2,    1.0691, 0, 0, 0, 0
"BUSLVMAI4", 0.20785, 1,    128.771,  -30.9,    1.0731, 2,    128.833,  149.1,    1.0736, 0, 0, 0, 0
"BUSLVMAI5", 0.20785, 1,      128.3, -150.9,    1.0692, 2,    128.345,   29.1,    1.0695, 0, 0, 0, 0
"BUSLVMAI6", 0.20785, 1,    128.208,   88.7,    1.0684, 2,    128.224,  -91.3,    1.0685, 0, 0, 0, 0
"BUSLVMAI7", 0.20785, 1,    128.302,   88.8,    1.0692, 2,    128.316,  -91.2,    1.0693, 0, 0, 0, 0
"BUSLVMAI8", 0.20785, 1,    128.034,   88.8,    1.0669, 2,     128.05,  -91.3,    1.0671, 0, 0, 0, 0
"BUSLVMAI9", 0.20785, 1,    127.997,   88.6,    1.0666, 2,     128.01,  -91.4,    1.0668, 0, 0, 0, 0
"BUSLVMAI10", 0.20785, 1,    128.017,   88.6,    1.0668, 2,     128.03,  -91.4,    1.0669, 0, 0, 0, 0
"BUSLVMAI11", 0.20785, 1,    128.599, -150.8,    1.0717, 2,    128.612,   29.2,    1.0718, 0, 0, 0, 0
"BUSLVMAI12", 0.20785, 1,    128.577, -150.8,    1.0715, 2,    128.592,   29.2,    1.0716, 0, 0, 0, 0
"BUSLVMAI13", 0.20785, 1,    128.979,  -30.8,    1.0748, 2,    128.995,  149.2,     1.075, 0, 0, 0, 0
"BUSLVMAI14", 0.20785, 1,    128.996,  -30.8,     1.075, 2,    129.012,  149.1,    1.0751, 0, 0, 0, 0
"BUSLVMAI15", 0.20785, 1,    128.976,  -30.8,    1.0748, 2,    128.989,  149.2,    1.0749, 0, 0, 0, 0
"BUSLVMAI16", 0.20785, 1,    128.283,   88.8,     1.069, 2,    128.301,  -91.2,    1.0692, 0, 0, 0, 0
"BUSLVMAI17", 0.20785, 1,    127.839,   88.6,    1.0653, 2,    127.864,  -91.4,    1.0655, 0, 0, 0, 0
"BUSLVMAI18", 0.20785, 1,    128.238,   88.8,    1.0686, 2,    128.254,  -91.2,    1.0688, 0, 0, 0, 0
"BUSLVMAI19", 0.20785, 1,    128.248,   88.8,    1.0687, 2,    128.261,  -91.2,    1.0688, 0, 0, 0, 0
"BUSLVMAI20", 0.20785, 1,      128.4, -150.8,      1.07, 2,    128.425,   29.2,    1.0702, 0, 0, 0, 0
"BUSLVMAI21", 0.20785, 1,    128.297,   88.8,    1.0691, 2,    128.312,  -91.2,    1.0693, 0, 0, 0, 0
"BUSLVMAI22", 0.20785, 1,    128.918,  -30.9,    1.0743, 2,    128.979,  149.1,    1.0748, 0, 0, 0, 0
"BUSLVMAI23", 0.20785, 1,     128.27,   88.8,    1.0689, 2,    128.285,  -91.2,     1.069, 0, 0, 0, 0
"BUSLVMAI24", 0.20785, 1,    128.273,   88.8,    1.0689, 2,    128.289,  -91.2,    1.0691, 0, 0, 0, 0
"BUSLVMAI25", 0.20785, 1,    128.235,   88.8,    1.0686, 2,    128.251,  -91.2,    1.0688, 0, 0, 0, 0
"BUSLVMAI26", 0.20785, 1,    128.559, -150.8,    1.0713, 2,    128.574,   29.2,    1.0715, 0, 0, 0, 0
"BUSLVMAI27", 0.20785, 1,    128.606, -150.8,    1.0717, 2,    128.622,   29.2,    1.0718, 0, 0, 0, 0
"BUSLVMAI28", 0.20785, 1,    128.238,   88.8,    1.0687, 2,    128.254,  -91.2,    1.0688, 0, 0, 0, 0
"BUSLVMAI29", 0.20785, 1,    128.055,   88.6,    1.0671, 2,    128.071,  -91.4,    1.0673, 0, 0, 0, 0
"BUSLVMAI30", 0.20785, 1,    128.482, -150.8,    1.0707, 2,    128.497,   29.2,    1.0708, 0, 0, 0, 0
"BUSLVMAI31", 0.20785, 1,    128.281,   88.8,     1.069, 2,    128.297,  -91.2,    1.0691, 0, 0, 0, 0
"BUSLVMAI32", 0.20785, 1,    128.777,  -30.9,    1.0731, 2,     128.79,  149.1,    1.0733, 0, 0, 0, 0
"BUSLVMAI33", 0.20785, 1,    128.227,   88.7,    1.0686, 2,     128.24,  -91.3,    1.0687, 0, 0, 0, 0
"BUSLVMAI34", 0.20785, 1,    127.426,   88.6,    1.0619, 2,     127.46,  -91.4,    1.0622, 0, 0, 0, 0
"BUSLVMAI35", 0.20785, 1,    128.237,   88.8,    1.0686, 2,    128.251,  -91.2,    1.0688, 0, 0, 0, 0
"BUSLVMAI36", 0.20785, 1,    128.235,   88.8,    1.0686, 2,     128.25,  -91.2,    1.0687, 0, 0, 0, 0
"BUSLVMAI37", 0.20785, 1,    128.232,   88.8,    1.0686, 2,    128.248,  -91.2,    1.0687, 0, 0, 0, 0
"BUSLVMAI38", 0.20785, 1,    127.109, -151.1,    1.0592, 2,    127.127,   28.9,    1.0594, 0, 0, 0, 0
"BUSLVMAI39", 0.20785, 1,    128.536, -150.8,    1.0711, 2,    128.549,   29.2,    1.0712, 0, 0, 0, 0
"BUSLVMAI40", 0.20785, 1,    128.115,   88.8,    1.0676, 2,    128.154,  -91.2,     1.068, 0, 0, 0, 0
"BUSLVMAI41", 0.20785, 1,    128.795,  -30.9,    1.0733, 2,    128.811,  149.1,    1.0734, 0, 0, 0, 0
"BUSLVMAI42", 0.20785, 1,    128.828,  -30.9,    1.0736, 2,    128.844,  149.1,    1.0737, 0, 0, 0, 0
"BUSLVMAI43", 0.20785, 1,    128.813,  -30.9,    1.0734, 2,    128.828,  149.1,    1.0736, 0, 0, 0, 0
"BUSLVMAI44", 0.20785, 1,    128.136,   88.8,    1.0678, 2,    128.165,  -91.2,     1.068, 0, 0, 0, 0
"BUSLVMAI45", 0.20785, 1,    128.116,   88.8,    1.0676, 2,    128.131,  -91.2,    1.0678, 0, 0, 0, 0
"BUSLVMAI46", 0.20785, 1,    128.193,   88.8,    1.0683, 2,    128.209,  -91.2,    1.0684, 0, 0, 0, 0
"BUSLVMAI47", 0.20785, 1,    128.238,   88.8,    1.0687, 2,    128.253,  -91.2,    1.0688, 0, 0, 0, 0
"BUSLVMAI48", 0.20785, 1,    128.013,   88.7,    1.0668, 2,    128.027,  -91.3,    1.0669, 0, 0, 0, 0
"BUSLVMAI49", 0.20785, 1,    128.806,  -30.9,    1.0734, 2,    128.821,  149.1,    1.0735, 0, 0, 0, 0
"BUSLVMAI50", 0.20785, 1,    127.792, -151.0,    1.0649, 2,      127.9,   29.0,    1.0658, 0, 0, 0, 0
"BUSLVMAI51", 0.20785, 1,    128.522,  -31.0,     1.071, 2,    128.538,  149.0,    1.0711, 0, 0, 0, 0
"BUSLVMAI52", 0.20785, 1,    128.245,   88.8,    1.0687, 2,    128.258,  -91.2,    1.0688, 0, 0, 0, 0
"BUSLVMAI53", 0.20785, 1,     128.23,   88.8,    1.0686, 2,    128.246,  -91.2,    1.0687, 0, 0, 0, 0
"BUSLVMAI54", 0.20785, 1,    127.882,   88.7,    1.0657, 2,    127.898,  -91.3,    1.0658, 0, 0, 0, 0
"BUSLVMAI55", 0.20785, 1,    128.826,  -30.9,    1.0735, 2,    128.842,  149.1,    1.0737, 0, 0, 0, 0
"BUSLVMAI56", 0.20785, 1,    128.041,   88.8,     1.067, 2,    128.055,  -91.3,    1.0671, 0, 0, 0, 0
"BUSLVMAI57", 0.20785, 1,    128.181,   88.8,    1.0682, 2,    128.197,  -91.2,    1.0683, 0, 0, 0, 0
"BUSLVMAI58", 0.20785, 1,    128.243,   88.8,    1.0687, 2,    128.257,  -91.2,    1.0688, 0, 0, 0, 0
"BUSLVMAI59", 0.20785, 1,    128.806,  -30.9,    1.0734, 2,    128.821,  149.1,    1.0735, 0, 0, 0, 0
"BUSLVMAI60", 0.20785, 1,    128.802,  -30.9,    1.0734, 2,    128.816,  149.1,    1.0735, 0, 0, 0, 0
"BUSLVMAI61", 0.20785, 1,    128.495,  -31.0,    1.0708, 2,    128.511,  149.0,    1.0709, 0, 0, 0, 0
"BUSLVMAI62", 0.20785, 1,    128.599, -150.8,    1.0717, 2,    128.613,   29.2,    1.0718, 0, 0, 0, 0
"BUSLVMAI63", 0.20785, 1,    128.574,  -31.0,    1.0714, 2,    128.595,  149.0,    1.0716, 0, 0, 0, 0
"BUSLVMAI64", 0.20785, 1,    128.554, -150.8,    1.0713, 2,    128.567,   29.2,    1.0714, 0, 0, 0, 0
"BUSLVMAI65", 0.20785, 1,    128.798,  -30.9,    1.0733, 2,    128.812,  149.1,    1.0734, 0, 0, 0, 0
"BUSLVMAI66", 0.20785, 1,    128.236,   88.8,    1.0686, 2,     128.25,  -91.2,    1.0688, 0, 0, 0, 0
"BUSLVMAI67", 0.20785, 1,    128.672,  -30.9,    1.0723, 2,    128.688,  149.1,    1.0724, 0, 0, 0, 0
"BUSLVMAI68", 0.20785, 1,    128.617,  -31.0,    1.0718, 2,     128.63,  149.0,    1.0719, 0, 0, 0, 0
"BUSLVMAI69", 0.20785, 1,    128.239,   88.8,    1.0687, 2,    128.252,  -91.2,    1.0688, 0, 0, 0, 0
"BUSLVMAI70", 0.20785, 1,    128.068,   88.7,    1.0672, 2,    128.091,  -91.3,    1.0674, 0, 0, 0, 0
"BUSLVMAI71", 0.20785, 1,    128.429,  -31.0,    1.0702, 2,    128.443,  149.0,    1.0704, 0, 0, 0, 0
"BUSLVMAI72", 0.20785, 1,    128.768,  -30.9,    1.0731, 2,    128.781,  149.1,    1.0732, 0, 0, 0, 0
"BUSLVMAI73", 0.20785, 1,    128.706,  -30.9,    1.0726, 2,     128.72,  149.1,    1.0727, 0, 0, 0, 0
"BUSLVMAI74", 0.20785, 1,    128.805,  -30.9,    1.0734, 2,    128.821,  149.1,    1.0735, 0, 0, 0, 0
"BUSLVMAI75", 0.20785, 1,    128.408, -150.9,    1.0701, 2,    128.422,   29.1,    1.0702, 0, 0, 0, 0
"BUSLVMAI76", 0.20785, 1,    128.236,   88.8,    1.0686, 2,     128.25,  -91.2,    1.0687, 0, 0, 0, 0
"BUSLVMAI77", 0.20785, 1,    128.586,  -30.9,    1.0715, 2,      128.6,  149.1,    1.0717, 0, 0, 0, 0
"BUSLVMAI78", 0.20785, 1,    128.782,  -30.9,    1.0732, 2,    128.795,  149.1,    1.0733, 0, 0, 0, 0
"BUSLVMAI79", 0.20785, 1,    128.187,   88.8,    1.0682, 2,    128.201,  -91.2,    1.0683, 0, 0, 0, 0
"BUSLVMAI80", 0.20785, 1,    127.698,   88.6,    1.0642, 2,    127.721,  -91.4,    1.0643, 0, 0, 0, 0
"BUSLVMAI81", 0.20785, 1,    128.235,   88.8,    1.0686, 2,     128.25,  -91.2,    1.0687, 0, 0, 0, 0
"BUSLVMAI82", 0.20785, 1,    128.194,   88.8,    1.0683, 2,     128.21,  -91.2,    1.0684, 0, 0, 0, 0
"BUSLVMAI83", 0.20785, 1,    128.598,  -31.0,    1.0717, 2,    128.617,  149.0,    1.0718, 0, 0, 0, 0
"BUSLVMAI84", 0.20785, 1,    128.076,   88.8,    1.0673, 2,     128.09,  -91.2,    1.0674, 0, 0, 0, 0
"BUSLVMAI85", 0.20785, 1,    128.606, -150.8,    1.0717, 2,    128.623,   29.2,    1.0719, 0, 0, 0, 0
"BUSLVMAI86", 0.20785, 1,    128.686,  -30.9,    1.0724, 2,    128.708,  149.1,    1.0726, 0, 0, 0, 0
"BUSLVMAI87", 0.20785, 1,    128.824,  -30.9,    1.0735, 2,    128.846,  149.1,    1.0737, 0, 0, 0, 0
"BUSLVMAI88", 0.20785, 1,    128.263,   88.8,    1.0689, 2,    128.277,  -91.2,     1.069, 0, 0, 0, 0
"BUSLVMAI89", 0.20785, 1,    128.236,   88.8,    1.0686, 2,     128.25,  -91.2,    1.0687, 0, 0, 0, 0
"BUSLVMAI90", 0.20785, 1,    127.993,   88.7,    1.0666, 2,    128.009,  -91.3,    1.0667, 0, 0, 0, 0
"BUSLVMAI91", 0.20785, 1,    128.237,   88.8,    1.0686, 2,    128.253,  -91.2,    1.0688, 0, 0, 0, 0
"BUSLVMAI92", 0.20785, 1,    128.631,  -30.9,    1.0719, 2,    128.648,  149.1,    1.0721, 0, 0, 0, 0
"BUSLVMAI93", 0.20785, 1,    128.106,   88.8,    1.0675, 2,    128.122,  -91.2,    1.0677, 0, 0, 0, 0
"BUSLVMAI94", 0.20785, 1,    128.049,   88.7,    1.0671, 2,    128.063,  -91.3,    1.0672, 0, 0, 0, 0
"BUSLVMAI95", 0.20785, 1,     128.18,   88.8,    1.0682, 2,    128.196,  -91.2,    1.0683, 0, 0, 0, 0
"BUSLVMAI96", 0.20785, 1,    128.224,   88.8,    1.0685, 2,    128.238,  -91.2,    1.0687, 0, 0, 0, 0
"BUSLVMAI97", 0.20785, 1,    128.641, -150.8,     1.072, 2,    128.657,   29.2,    1.0721, 0, 0, 0, 0
"BUSLVMAI98", 0.20785, 1,    128.641, -150.8,     1.072, 2,    128.657,   29.2,    1.0721, 0, 0, 0, 0
"BUSLVMAI99", 0.20785, 1,    128.228,   88.8,    1.0686, 2,    128.242,  -91.2,    1.0687, 0, 0, 0, 0
"BUSLVMAI100", 0.20785, 1,    128.243,   88.8,    1.0687, 2,    128.257,  -91.2,    1.0688, 0, 0, 0, 0
"BUSLVMAI101", 0.20785, 1,    128.178,   88.8,    1.0682, 2,    128.194,  -91.2,    1.0683, 0, 0, 0, 0
"BUSLVMAI102", 0.20785, 1,    128.233,   88.8,    1.0686, 2,    128.249,  -91.2,    1.0687, 0, 0, 0, 0
"BUSLVMAI103", 0.20785, 1,    128.165,   88.8,     1.068, 2,    128.181,  -91.2,    1.0682, 0, 0, 0, 0
"BUSLVMAI104", 0.20785, 1,    128.156,   88.8,     1.068, 2,    128.171,  -91.2,    1.0681, 0, 0, 0, 0
"BUSLVMAI105", 0.20785, 1,    128.101,   88.8,    1.0675, 2,    128.115,  -91.2,    1.0676, 0, 0, 0, 0
"BUSLVMAI106", 0.20785, 1,    128.784,  -30.9,    1.0732, 2,    128.797,  149.1,    1.0733, 0, 0, 0, 0
"BUSLVMAI107", 0.20785, 1,    128.238,   88.8,    1.0686, 2,    128.252,  -91.2,    1.0688, 0, 0, 0, 0
"BUSLVMAI108", 0.20785, 1,    128.192,   88.8,    1.0683, 2,    128.206,  -91.2,    1.0684, 0, 0, 0, 0
"BUSLVMAI109", 0.20785, 1,    128.428,  -31.0,    1.0702, 2,    128.482,  149.0,    1.0707, 0, 0, 0, 0
"BUSLVMAI110", 0.20785, 1,    128.568,  -31.0,    1.0714, 2,    128.585,  149.0,    1.0715, 0, 0, 0, 0
"BUSLVMAI111", 0.20785, 1,    128.651,  -30.9,    1.0721, 2,    128.668,  149.1,    1.0722, 0, 0, 0, 0
"BUSLVMAI112", 0.20785, 1,    128.727,  -30.9,    1.0727, 2,    128.743,  149.1,    1.0729, 0, 0, 0, 0
"BUSLVMAI113", 0.20785, 1,    128.613, -150.8,    1.0718, 2,    128.629,   29.2,    1.0719, 0, 0, 0, 0
"BUSLVMAI114", 0.20785, 1,    127.917,  -31.2,     1.066, 2,    127.933,  148.8,    1.0661, 0, 0, 0, 0
"BUSLVMAI115", 0.20785, 1,    128.654,  -30.9,    1.0721, 2,    128.668,  149.1,    1.0722, 0, 0, 0, 0
"BUSLVMAI116", 0.20785, 1,    128.164,   88.8,     1.068, 2,    128.178,  -91.2,    1.0681, 0, 0, 0, 0
"BUSLVMAI117", 0.20785, 1,    128.478,  -31.0,    1.0706, 2,    128.499,  149.0,    1.0708, 0, 0, 0, 0
"BUSLVMAI118", 0.20785, 1,    128.557,  -30.9,    1.0713, 2,    128.573,  149.0,    1.0714, 0, 0, 0, 0
"BUSLVMAI119", 0.20785, 1,    128.035,   88.8,     1.067, 2,    128.048,  -91.2,    1.0671, 0, 0, 0, 0
"BUSLVMAI120", 0.20785, 1,    128.653,  -30.9,    1.0721, 2,    128.667,  149.1,    1.0722, 0, 0, 0, 0
"BUSLVMAI121", 0.20785, 1,    128.659, -150.8,    1.0722, 2,    128.675,   29.2,    1.0723, 0, 0, 0, 0
"BUSLVMAI122", 0.20785, 1,    128.153,   88.9,    1.0679, 2,    128.169,  -91.2,    1.0681, 0, 0, 0, 0
"BUSLVMAI123", 0.20785, 1,    128.657, -150.8,    1.0721, 2,    128.672,   29.2,    1.0723, 0, 0, 0, 0
"BUSLVMAI124", 0.20785, 1,    127.872,   88.7,    1.0656, 2,     127.91,  -91.3,    1.0659, 0, 0, 0, 0
"BUSLVMAI125", 0.20785, 1,    127.839,   88.7,    1.0653, 2,    127.857,  -91.3,    1.0655, 0, 0, 0, 0
"BUSLVMAI126", 0.20785, 1,    128.662, -150.8,    1.0722, 2,    128.676,   29.2,    1.0723, 0, 0, 0, 0
"BUSLVMAI127", 0.20785, 1,    128.159,   88.9,     1.068, 2,    128.173,  -91.2,    1.0681, 0, 0, 0, 0
"BUSLVMAI128", 0.20785, 1,    128.225, -151.0,    1.0685, 2,    128.244,   29.0,    1.0687, 0, 0, 0, 0
"BUSLVMAI129", 0.20785, 1,    128.654,  -30.9,    1.0721, 2,    128.667,  149.1,    1.0722, 0, 0, 0, 0
"BUSLVMAI130", 0.20785, 1,    128.743,  -30.9,    1.0729, 2,    128.758,  149.1,     1.073, 0, 0, 0, 0
"BUSLVMAI131", 0.20785, 1,    128.326,  -31.0,    1.0694, 2,    128.349,  149.0,    1.0696, 0, 0, 0, 0
"BUSLVMAI132", 0.20785, 1,    128.652,  -30.9,    1.0721, 2,    128.665,  149.1,    1.0722, 0, 0, 0, 0
"BUSLVMAI133", 0.20785, 1,    128.166,   88.8,    1.0681, 2,    128.184,  -91.2,    1.0682, 0, 0, 0, 0
"BUSLVMAI134", 0.20785, 1,    128.059,   88.8,    1.0672, 2,    128.076,  -91.2,    1.0673, 0, 0, 0, 0
"BUSLVMAI135", 0.20785, 1,    128.144,   88.8,    1.0679, 2,    128.161,  -91.2,     1.068, 0, 0, 0, 0
"BUSLVMAI136", 0.20785, 1,    128.412,  -31.0,    1.0701, 2,    128.434,  149.0,    1.0703, 0, 0, 0, 0
"BUSLVMAI137", 0.20785, 1,    128.485, -150.8,    1.0707, 2,    128.498,   29.2,    1.0708, 0, 0, 0, 0
"BUSLVMAI138", 0.20785, 1,    128.514, -150.8,    1.0709, 2,    128.535,   29.2,    1.0711, 0, 0, 0, 0
"BUSLVMAI139", 0.20785, 1,    128.436, -150.9,    1.0703, 2,    128.451,   29.1,    1.0704, 0, 0, 0, 0
"BUSLVMAI140", 0.20785, 1,    128.564,  -30.9,    1.0714, 2,    128.581,  149.0,    1.0715, 0, 0, 0, 0
"BUSLVMAI141", 0.20785, 1,    128.662, -150.8,    1.0722, 2,    128.677,   29.2,    1.0723, 0, 0, 0, 0
"BUSLVMAI142", 0.20785, 1,     128.51, -150.8,    1.0709, 2,    128.524,   29.2,     1.071, 0, 0, 0, 0
"BUSLVMAI143", 0.20785, 1,    128.619, -150.8,    1.0718, 2,    128.635,   29.2,     1.072, 0, 0, 0, 0
"BUSLVMAI144", 0.20785, 1,    128.156,   88.9,     1.068, 2,    128.171,  -91.2,    1.0681, 0, 0, 0, 0
"BUSLVMAI145", 0.20785, 1,    128.709,  -30.9,    1.0726, 2,    128.724,  149.1,    1.0727, 0, 0, 0, 0
"BUSLVMAI146", 0.20785, 1,    128.653, -150.8,    1.0721, 2,    128.668,   29.2,    1.0722, 0, 0, 0, 0
"BUSLVMAI147", 0.20785, 1,    128.286,  -31.1,    1.0691, 2,    128.303,  148.9,    1.0692, 0, 0, 0, 0
"BUSLVMAI148", 0.20785, 1,    128.116,   88.8,    1.0676, 2,    128.132,  -91.2,    1.0678, 0, 0, 0, 0
"BUSLVMAI149", 0.20785, 1,    128.529, -150.8,    1.0711, 2,    128.542,   29.2,    1.0712, 0, 0, 0, 0
"BUSLVMAI150", 0.20785, 1,    128.359,  -31.0,    1.0697, 2,     128.38,  149.0,    1.0698, 0, 0, 0, 0
"BUSLVMAI151", 0.20785, 1,    128.204, -150.9,    1.0684, 2,    128.217,   29.1,    1.0685, 0, 0, 0, 0
"BUSLVMAI152", 0.20785, 1,    128.644,  -30.9,     1.072, 2,     128.66,  149.1,    1.0722, 0, 0, 0, 0
"BUSLVMAI153", 0.20785, 1,    127.825,   88.7,    1.0652, 2,    127.841,  -91.3,    1.0653, 0, 0, 0, 0
"BUSLVMAI154", 0.20785, 1,     128.16,   88.8,     1.068, 2,    128.176,  -91.2,    1.0681, 0, 0, 0, 0
"BUSLVMAI155", 0.20785, 1,    128.478,  -31.0,    1.0707, 2,    128.492,  149.0,    1.0708, 0, 0, 0, 0
"BUSLVMAI156", 0.20785, 1,    128.655,  -30.9,    1.0721, 2,    128.669,  149.1,    1.0722, 0, 0, 0, 0
"BUSLVMAI157", 0.20785, 1,    128.405,  -31.0,      1.07, 2,    128.421,  149.0,    1.0702, 0, 0, 0, 0
"BUSLVMAI158", 0.20785, 1,    128.624, -150.8,    1.0719, 2,    128.637,   29.2,     1.072, 0, 0, 0, 0
"BUSLVMAI159", 0.20785, 1,    128.629, -150.8,    1.0719, 2,    128.642,   29.2,     1.072, 0, 0, 0, 0
"BUSLVMAI160", 0.20785, 1,    128.484,  -31.0,    1.0707, 2,    128.501,  149.0,    1.0708, 0, 0, 0, 0
"BUSLVMAI161", 0.20785, 1,    128.508,  -31.0,    1.0709, 2,    128.532,  149.0,    1.0711, 0, 0, 0, 0
"BUSLVMAI162", 0.20785, 1,    128.529,  -31.0,    1.0711, 2,    128.546,  149.0,    1.0712, 0, 0, 0, 0
"BUSLVMAI163", 0.20785, 1,    128.644,  -30.9,     1.072, 2,     128.66,  149.1,    1.0722, 0, 0, 0, 0
"BUSLVMAI164", 0.20785, 1,    128.768,  -30.9,    1.0731, 2,    128.781,  149.1,    1.0732, 0, 0, 0, 0
"BUSLVMAI165", 0.20785, 1,    128.325,  -31.0,    1.0694, 2,     128.36,  149.0,    1.0697, 0, 0, 0, 0
"BUSLVMAI166", 0.20785, 1,    128.526,  -31.0,    1.0711, 2,     128.55,  149.0,    1.0713, 0, 0, 0, 0
"BUSLVMAI167", 0.20785, 1,    128.004,   88.8,    1.0667, 2,     128.02,  -91.3,    1.0668, 0, 0, 0, 0
"BUSLVMAI168", 0.20785, 1,    128.094,   88.8,    1.0675, 2,    128.108,  -91.2,    1.0676, 0, 0, 0, 0
"BUSLVMAI169", 0.20785, 1,    127.825,  -31.1,    1.0652, 2,    127.843,  148.9,    1.0654, 0, 0, 0, 0
"BUSLVMAI170", 0.20785, 1,    128.648,  -30.9,    1.0721, 2,    128.663,  149.1,    1.0722, 0, 0, 0, 0
"BUSLVMAI171", 0.20785, 1,    128.397,  -31.0,      1.07, 2,    128.439,  149.0,    1.0703, 0, 0, 0, 0
"BUSLVMAI172", 0.20785, 1,    128.004,   88.8,    1.0667, 2,    128.019,  -91.2,    1.0668, 0, 0, 0, 0
"BUSLVMAI173", 0.20785, 1,    128.152,   88.9,    1.0679, 2,    128.168,  -91.2,    1.0681, 0, 0, 0, 0
"BUSLVMAI174", 0.20785, 1,    128.477,  -31.0,    1.0706, 2,      128.5,  149.0,    1.0708, 0, 0, 0, 0
"BUSLVMAI175", 0.20785, 1,     128.42,  -31.0,    1.0702, 2,    128.435,  149.0,    1.0703, 0, 0, 0, 0
"BUSLVMAI176", 0.20785, 1,    128.098,   88.8,    1.0675, 2,    128.112,  -91.2,    1.0676, 0, 0, 0, 0
"BUSLVMAI177", 0.20785, 1,    128.132,   88.8,    1.0678, 2,    128.145,  -91.2,    1.0679, 0, 0, 0, 0
"BUSLVMAI178", 0.20785, 1,     128.62, -150.8,    1.0718, 2,    128.633,   29.2,    1.0719, 0, 0, 0, 0
"BUSLVMAI179", 0.20785, 1,    128.593, -150.8,    1.0716, 2,    128.607,   29.2,    1.0717, 0, 0, 0, 0
"BUSLVMAI180", 0.20785, 1,    128.655,  -30.9,    1.0721, 2,    128.668,  149.1,    1.0722, 0, 0, 0, 0
"BUSLVMAI181", 0.20785, 1,    128.648,  -30.9,    1.0721, 2,    128.662,  149.1,    1.0722, 0, 0, 0, 0
"BUSLVMAI182", 0.20785, 1,    128.322,  -31.1,    1.0693, 2,    128.349,  148.9,    1.0696, 0, 0, 0, 0
"BUSLVMAI183", 0.20785, 1,    128.134,   88.8,    1.0678, 2,    128.148,  -91.2,    1.0679, 0, 0, 0, 0
"BUSLVMAI184", 0.20785, 1,     128.75,  -30.9,    1.0729, 2,    128.763,  149.1,     1.073, 0, 0, 0, 0
"BUSLVMAI185", 0.20785, 1,    128.439, -150.9,    1.0703, 2,    128.452,   29.1,    1.0704, 0, 0, 0, 0
"BUSLVMAI186", 0.20785, 1,    128.163,   88.8,     1.068, 2,    128.179,  -91.2,    1.0682, 0, 0, 0, 0
"BUSLVMAI187", 0.20785, 1,    128.124,   88.8,    1.0677, 2,    128.137,  -91.2,    1.0678, 0, 0, 0, 0
"BUSLVMAI188", 0.20785, 1,    128.633, -150.8,    1.0719, 2,    128.649,   29.2,    1.0721, 0, 0, 0, 0
"BUSLVMAI189", 0.20785, 1,     128.65,  -30.9,    1.0721, 2,    128.666,  149.1,    1.0722, 0, 0, 0, 0
"BUSLVMAI190", 0.20785, 1,    128.629, -150.8,    1.0719, 2,    128.645,   29.2,     1.072, 0, 0, 0, 0
"BUSLVMAI191", 0.20785, 1,     128.16,   88.8,     1.068, 2,    128.176,  -91.2,    1.0681, 0, 0, 0, 0
"BUSLVMAI192", 0.20785, 1,    128.642,  -30.9,     1.072, 2,    128.658,  149.1,    1.0722, 0, 0, 0, 0
"BUSLVMAI193", 0.20785, 1,    128.647,  -30.9,    1.0721, 2,    128.664,  149.1,    1.0722, 0, 0, 0, 0
"BUSLVMAI194", 0.20785, 1,    128.136,   88.8,    1.0678, 2,    128.151,  -91.2,    1.0679, 0, 0, 0, 0
"BUSLVMAI195", 0.20785, 1,    128.162,   88.8,     1.068, 2,    128.178,  -91.2,    1.0681, 0, 0, 0, 0
"BUSLVMAI196", 0.20785, 1,    128.611, -150.8,    1.0718, 2,    128.627,   29.2,    1.0719, 0, 0, 0, 0
"BUSLVMAI197", 0.20785, 1,    128.591, -150.8,    1.0716, 2,    128.605,   29.2,    1.0717, 0, 0, 0, 0
"BUSLVMAI198", 0.20785, 1,    128.612, -150.8,    1.0718, 2,    128.627,   29.2,    1.0719, 0, 0, 0, 0
"BUSLVMAI199", 0.20785, 1,    128.612, -150.8,    1.0718, 2,    128.628,   29.2,    1.0719, 0, 0, 0, 0
"BUSLVMAI200", 0.20785, 1,    128.641,  -30.9,     1.072, 2,    128.656,  149.1,    1.0721, 0, 0, 0, 0
...
